// Generated for: spectre
// Generated on: Jun 17 12:49:31 2026
// Design library name: SAR9B_400MV
// Design cell name: ADC_9B_tb_best_q4
// Design view name: schematic
simulator lang=spectre
global 0
include "/home/IC/Desktop/Project/SAR9B_400MV/ADC_9B_tb_best_q4/maestro/sar9b_va_ahdl.scs"
parameters fs=400M Vpk=800m Cunit=1f Vth_sw=0.9 TSTOP=2.7u
include "/home/IC/Desktop/Project/project_tsmcN28_NEW/project_tsmcN28_NEW/iPDK_CRN28HPC+_v1.0_2p2a_20160226_all/CRN28HPCp/models/spectre/toplevel.scs" section=top_tt

// Library name: analogLib
// Cell name: ideal_balun
// View name: schematic
subckt ideal_balun d c p n
    K0 (d 0 p c) transformer n1=2
    K1 (d 0 c n) transformer n1=2
ends ideal_balun
// End of subcircuit definition.

// Library name: SAR9B_400MV
// Cell name: DELAY_1
// View name: schematic
subckt DELAY_1 IN VDD VSS Z
    M4 (Z net1 VSS VSS) nch_mac l=100n w=100n multi=1 nf=1 sd=120.0n \
        ad=9.5e-15 as=9.5e-15 pd=390.0n ps=390.0n nrd=2.523521 \
        nrs=2.523521 sa=95.0n sb=95.0n sa1=95.0n sa2=95.0n sa3=95.0n \
        sa4=95.0n sb1=95.0n sb2=95.0n sb3=95.0n spa=120.0n spa1=120.0n \
        spa2=120.0n spa3=120.0n sap=112.128n sapb=128.193n spba=134.907n \
        spba1=139.642n dfm_flag=0 spmt=1.11111e+15 spomt=0 \
        spomt1=1.11111e+60 spmb=1.11111e+15 spomb=0 spomb1=1.11111e+60
    M0 (net1 IN VSS VSS) nch_mac l=100n w=100n multi=1 nf=1 sd=120.0n \
        ad=9.5e-15 as=9.5e-15 pd=390.0n ps=390.0n nrd=2.523521 \
        nrs=2.523521 sa=95.0n sb=95.0n sa1=95.0n sa2=95.0n sa3=95.0n \
        sa4=95.0n sb1=95.0n sb2=95.0n sb3=95.0n spa=120.0n spa1=120.0n \
        spa2=120.0n spa3=120.0n sap=112.128n sapb=128.193n spba=134.907n \
        spba1=139.642n dfm_flag=0 spmt=1.11111e+15 spomt=0 \
        spomt1=1.11111e+60 spmb=1.11111e+15 spomb=0 spomb1=1.11111e+60
    M5 (Z net1 VDD VDD) pch_mac l=100n w=200n multi=1 nf=1 sd=120.0n \
        ad=1.9e-14 as=1.9e-14 pd=590.0n ps=590.0n nrd=1.116878 \
        nrs=1.116878 sa=95.0n sb=95.0n sa1=95.0n sa2=95.0n sa3=95.0n \
        sa4=95.0n sb1=95.0n sb2=95.0n sb3=95.0n spa=120.0n spa1=120.0n \
        spa2=120.0n spa3=120.0n sap=112.128n sapb=128.193n spba=134.907n \
        spba1=139.642n dfm_flag=0 spmt=1.11111e+15 spomt=0 \
        spomt1=1.11111e+60 spmb=1.11111e+15 spomb=0 spomb1=1.11111e+60
    M1 (net1 IN VDD VDD) pch_mac l=100n w=200n multi=1 nf=1 sd=120.0n \
        ad=1.9e-14 as=1.9e-14 pd=590.0n ps=590.0n nrd=1.116878 \
        nrs=1.116878 sa=95.0n sb=95.0n sa1=95.0n sa2=95.0n sa3=95.0n \
        sa4=95.0n sb1=95.0n sb2=95.0n sb3=95.0n spa=120.0n spa1=120.0n \
        spa2=120.0n spa3=120.0n sap=112.128n sapb=128.193n spba=140.0n \
        spba1=149.666n dfm_flag=0 spmt=1.11111e+15 spomt=0 \
        spomt1=1.11111e+60 spmb=1.11111e+15 spomb=0 spomb1=1.11111e+60
ends DELAY_1
// End of subcircuit definition.

// Library name: SAR9B_400MV
// Cell name: INVX1
// View name: schematic
subckt INVX1 IN VDD VSS ZN
    M0 (ZN IN VSS VSS) nch_mac l=30n w=100n multi=1 nf=1 sd=100n \
        ad=7.5e-15 as=7.5e-15 pd=350n ps=350n nrd=2.576626 nrs=2.576626 \
        sa=75n sb=75n sa1=75n sa2=75n sa3=75n sa4=75n sb1=75n sb2=75n \
        sb3=75n spa=100n spa1=100n spa2=100n spa3=100n sap=91.9776n \
        sapb=114.444n spba=115.715168n spba1=117.042727n dfm_flag=0 \
        spmt=1.11111e+15 spomt=0 spomt1=1.11111e+60 spmb=1.11111e+15 \
        spomb=0 spomb1=1.11111e+60
    M1 (ZN IN VDD VDD) pch_mac l=30n w=200n multi=1 nf=1 sd=100n \
        ad=1.5e-14 as=1.5e-14 pd=550.0n ps=550.0n nrd=1.688887 \
        nrs=1.688887 sa=75.0n sb=75.0n sa1=75.0n sa2=75.0n sa3=75.0n \
        sa4=75.0n sb1=75.0n sb2=75.0n sb3=75.0n spa=100n spa1=100n \
        spa2=100n spa3=100n sap=91.9776n sapb=114.444n spba=115.715n \
        spba1=117.043n dfm_flag=0 spmt=1.11111e+15 spomt=0 \
        spomt1=1.11111e+60 spmb=1.11111e+15 spomb=0 spomb1=1.11111e+60
ends INVX1
// End of subcircuit definition.

// Library name: SAR9B_400MV
// Cell name: TRIGATEX1
// View name: schematic
subckt TRIGATEX1 IN OE OEN VDD VSS Z
    M0 (IN OE Z VSS) nch_mac l=30n w=100n multi=1 nf=1 sd=100n ad=7.5e-15 \
        as=7.5e-15 pd=350n ps=350n nrd=2.576626 nrs=2.576626 sa=75n sb=75n \
        sa1=75n sa2=75n sa3=75n sa4=75n sb1=75n sb2=75n sb3=75n spa=100n \
        spa1=100n spa2=100n spa3=100n sap=91.9776n sapb=114.444n \
        spba=115.715168n spba1=117.042727n dfm_flag=0 spmt=1.11111e+15 \
        spomt=0 spomt1=1.11111e+60 spmb=1.11111e+15 spomb=0 \
        spomb1=1.11111e+60
    M2 (IN OEN Z VDD) pch_mac l=30n w=200n multi=1 nf=1 sd=100n ad=1.5e-14 \
        as=1.5e-14 pd=550.0n ps=550.0n nrd=1.688887 nrs=1.688887 sa=75.0n \
        sb=75.0n sa1=75.0n sa2=75.0n sa3=75.0n sa4=75.0n sb1=75.0n \
        sb2=75.0n sb3=75.0n spa=100n spa1=100n spa2=100n spa3=100n \
        sap=91.9776n sapb=114.444n spba=115.715n spba1=117.043n dfm_flag=0 \
        spmt=1.11111e+15 spomt=0 spomt1=1.11111e+60 spmb=1.11111e+15 \
        spomb=0 spomb1=1.11111e+60
ends TRIGATEX1
// End of subcircuit definition.

// Library name: SAR9B_400MV
// Cell name: INVX2
// View name: schematic
subckt INVX2 IN VDD VSS ZN
    M0 (ZN IN VSS VSS) nch_mac l=30n w=200n multi=1 nf=1 sd=100n \
        ad=1.5e-14 as=1.5e-14 pd=550.0n ps=550.0n nrd=2.828877 \
        nrs=2.828877 sa=75.0n sb=75.0n sa1=75.0n sa2=75.0n sa3=75.0n \
        sa4=75.0n sb1=75.0n sb2=75.0n sb3=75.0n spa=100n spa1=100n \
        spa2=100n spa3=100n sap=91.9776n sapb=114.444n spba=115.715n \
        spba1=117.043n dfm_flag=0 spmt=1.11111e+15 spomt=0 \
        spomt1=1.11111e+60 spmb=1.11111e+15 spomb=0 spomb1=1.11111e+60
    M1 (ZN IN VDD VDD) pch_mac l=30n w=400n multi=1 nf=1 sd=100n ad=3e-14 \
        as=3e-14 pd=950.0n ps=950.0n nrd=0.522453 nrs=0.522453 sa=75.0n \
        sb=75.0n sa1=75.0n sa2=75.0n sa3=75.0n sa4=75.0n sb1=75.0n \
        sb2=75.0n sb3=75.0n spa=100n spa1=100n spa2=100n spa3=100n \
        sap=91.9776n sapb=114.444n spba=115.715n spba1=117.043n dfm_flag=0 \
        spmt=1.11111e+15 spomt=0 spomt1=1.11111e+60 spmb=1.11111e+15 \
        spomb=0 spomb1=1.11111e+60
ends INVX2
// End of subcircuit definition.

// Library name: SAR9B_400MV
// Cell name: INVX4
// View name: schematic
subckt INVX4 IN VDD VSS ZN
    M0 (ZN IN VSS VSS) nch_mac l=30n w=400n multi=1 nf=1 sd=100n ad=3e-14 \
        as=3e-14 pd=950.0n ps=950.0n nrd=0.896976 nrs=0.896976 sa=75.0n \
        sb=75.0n sa1=75.0n sa2=75.0n sa3=75.0n sa4=75.0n sb1=75.0n \
        sb2=75.0n sb3=75.0n spa=100n spa1=100n spa2=100n spa3=100n \
        sap=91.9776n sapb=114.444n spba=115.715n spba1=117.043n dfm_flag=0 \
        spmt=1.11111e+15 spomt=0 spomt1=1.11111e+60 spmb=1.11111e+15 \
        spomb=0 spomb1=1.11111e+60
    M1 (ZN IN VDD VDD) pch_mac l=30n w=800n multi=1 nf=1 sd=100n ad=6e-14 \
        as=6e-14 pd=1.75u ps=1.75u nrd=0.214332 nrs=0.214332 sa=75.0n \
        sb=75.0n sa1=75.0n sa2=75.0n sa3=75.0n sa4=75.0n sb1=75.0n \
        sb2=75.0n sb3=75.0n spa=100n spa1=100n spa2=100n spa3=100n \
        sap=91.9776n sapb=114.444n spba=115.715n spba1=117.043n dfm_flag=0 \
        spmt=1.11111e+15 spomt=0 spomt1=1.11111e+60 spmb=1.11111e+15 \
        spomb=0 spomb1=1.11111e+60
ends INVX4
// End of subcircuit definition.

// Library name: SAR9B_400MV
// Cell name: DFF
// View name: schematic
subckt DFF CLK D Q VDD VSS
    I11 (net6 VDD VSS net7) INVX1
    I13 (net1 VDD VSS net6) INVX1
    I14 (net8 VDD VSS net2) INVX1
    I8 (net9 CLK CLKN VDD VSS net8) TRIGATEX1
    I6 (D CLKN CLK VDD VSS net8) TRIGATEX1
    I4 (net3 CLKN CLK VDD VSS net1) TRIGATEX1
    I1 (net2 CLK CLKN VDD VSS net1) TRIGATEX1
    I9 (CLK VDD VSS CLKN) INVX2
    I7 (net6 VDD VSS net3) INVX2
    I2 (net2 VDD VSS net9) INVX2
    I12 (net7 VDD VSS Q) INVX4
ends DFF
// End of subcircuit definition.

// Library name: SAR9B_400MV
// Cell name: INVX8
// View name: schematic
subckt INVX8 IN VDD VSS ZN
    M0 (ZN IN VSS VSS) nch_mac l=30n w=800n multi=1 nf=2 sd=100n ad=4e-14 \
        as=6e-14 pd=1u ps=1.9u nrd=0.576527 nrs=0.576527 sa=112.742n \
        sb=112.742n sa1=93.6047n sa2=112.078n sa3=163.715n sa4=110.059n \
        sb1=93.6047n sb2=112.078n sb3=163.715n spa=100n spa1=100n \
        spa2=100n spa3=100n sap=104.359n sapb=125.813n spba=115.715n \
        spba1=117.043n dfm_flag=0 spmt=1.11111e+15 spomt=0 \
        spomt1=1.11111e+60 spmb=1.11111e+15 spomb=0 spomb1=1.11111e+60
    M1 (ZN IN VDD VDD) pch_mac l=30n w=1.6u multi=1 nf=2 sd=100n ad=8e-14 \
        as=1.2e-13 pd=1.8u ps=3.5u nrd=0.118741 nrs=0.118741 sa=112.742n \
        sb=112.742n sa1=93.6047n sa2=112.078n sa3=163.715n sa4=110.059n \
        sb1=93.6047n sb2=112.078n sb3=163.715n spa=100n spa1=100n \
        spa2=100n spa3=100n sap=104.359n sapb=125.813n spba=115.715n \
        spba1=117.043n dfm_flag=0 spmt=1.11111e+15 spomt=0 \
        spomt1=1.11111e+60 spmb=1.11111e+15 spomb=0 spomb1=1.11111e+60
ends INVX8
// End of subcircuit definition.

// Library name: SAR9B_400MV
// Cell name: control
// View name: schematic
subckt control Bi Vcm Vcomp VrefN VrefP cap clki
    I4 (Vcomp VrefP VrefN net3) DELAY_1
    M5 (Vcm clkis cap VrefN) nch_mac l=30n w=800n multi=2 nf=1 sd=100n \
        ad=6e-14 as=6e-14 pd=1.75u ps=1.75u nrd=0.373548 nrs=0.373548 \
        sa=75.0n sb=75.0n sa1=75.0n sa2=75.0n sa3=75.0n sa4=75.0n \
        sb1=75.0n sb2=75.0n sb3=75.0n spa=100n spa1=100n spa2=100n \
        spa3=100n sap=91.9776n sapb=114.444n spba=115.715n spba1=117.043n \
        dfm_flag=0 spmt=1.11111e+15 spomt=0 spomt1=1.11111e+60 \
        spmb=1.11111e+15 spomb=0 spomb1=1.11111e+60
    M3 (net6 clki VrefN VrefN) nch_mac l=30n w=800n multi=2 nf=1 sd=100n \
        ad=6e-14 as=6e-14 pd=1.75u ps=1.75u nrd=0.373548 nrs=0.373548 \
        sa=75.0n sb=75.0n sa1=75.0n sa2=75.0n sa3=75.0n sa4=75.0n \
        sb1=75.0n sb2=75.0n sb3=75.0n spa=100n spa1=100n spa2=100n \
        spa3=100n sap=91.9776n sapb=114.444n spba=115.715n spba1=117.043n \
        dfm_flag=0 spmt=1.11111e+15 spomt=0 spomt1=1.11111e+60 \
        spmb=1.11111e+15 spomb=0 spomb1=1.11111e+60
    M0 (cap Bi net6 VrefN) nch_mac l=30n w=800n multi=2 nf=1 sd=100n \
        ad=6e-14 as=6e-14 pd=1.75u ps=1.75u nrd=0.373548 nrs=0.373548 \
        sa=75.0n sb=75.0n sa1=75.0n sa2=75.0n sa3=75.0n sa4=75.0n \
        sb1=75.0n sb2=75.0n sb3=75.0n spa=100n spa1=100n spa2=100n \
        spa3=100n sap=91.9776n sapb=114.444n spba=115.715n spba1=117.043n \
        dfm_flag=0 spmt=1.11111e+15 spomt=0 spomt1=1.11111e+60 \
        spmb=1.11111e+15 spomb=0 spomb1=1.11111e+60
    M4 (Vcm clki cap VrefP) pch_mac l=30n w=800n multi=4 nf=1 sd=100n \
        ad=6e-14 as=6e-14 pd=1.75u ps=1.75u nrd=0.214332 nrs=0.214332 \
        sa=75.0n sb=75.0n sa1=75.0n sa2=75.0n sa3=75.0n sa4=75.0n \
        sb1=75.0n sb2=75.0n sb3=75.0n spa=100n spa1=100n spa2=100n \
        spa3=100n sap=91.9776n sapb=114.444n spba=115.715n spba1=117.043n \
        dfm_flag=0 spmt=1.11111e+15 spomt=0 spomt1=1.11111e+60 \
        spmb=1.11111e+15 spomb=0 spomb1=1.11111e+60
    M2 (net12 clkis VrefP VrefP) pch_mac l=30n w=800n multi=4 nf=1 sd=100n \
        ad=6e-14 as=6e-14 pd=1.75u ps=1.75u nrd=0.214332 nrs=0.214332 \
        sa=75.0n sb=75.0n sa1=75.0n sa2=75.0n sa3=75.0n sa4=75.0n \
        sb1=75.0n sb2=75.0n sb3=75.0n spa=100n spa1=100n spa2=100n \
        spa3=100n sap=91.9776n sapb=114.444n spba=115.715n spba1=117.043n \
        dfm_flag=0 spmt=1.11111e+15 spomt=0 spomt1=1.11111e+60 \
        spmb=1.11111e+15 spomb=0 spomb1=1.11111e+60
    M1 (cap Bi net12 VrefP) pch_mac l=30n w=800n multi=4 nf=1 sd=100n \
        ad=6e-14 as=6e-14 pd=1.75u ps=1.75u nrd=0.214332 nrs=0.214332 \
        sa=75.0n sb=75.0n sa1=75.0n sa2=75.0n sa3=75.0n sa4=75.0n \
        sb1=75.0n sb2=75.0n sb3=75.0n spa=100n spa1=100n spa2=100n \
        spa3=100n sap=91.9776n sapb=114.444n spba=115.715n spba1=117.043n \
        dfm_flag=0 spmt=1.11111e+15 spomt=0 spomt1=1.11111e+60 \
        spmb=1.11111e+15 spomb=0 spomb1=1.11111e+60
    I5 (clki net3 Bi VrefP VrefN) DFF
    I6 (clki VrefP VrefN clkis) INVX8
ends control
// End of subcircuit definition.

// Library name: SAR9B_400MV
// Cell name: NAND2X1
// View name: schematic
subckt NAND2X1 A B VDD VSS ZN
    M3 (ZN A net1 VSS) nch_mac l=30n w=100n multi=1 nf=1 sd=100n \
        ad=7.5e-15 as=7.5e-15 pd=350n ps=350n nrd=2.576626 nrs=2.576626 \
        sa=75n sb=75n sa1=75n sa2=75n sa3=75n sa4=75n sb1=75n sb2=75n \
        sb3=75n spa=100n spa1=100n spa2=100n spa3=100n sap=91.9776n \
        sapb=114.444n spba=115.715168n spba1=117.042727n dfm_flag=0 \
        spmt=1.11111e+15 spomt=0 spomt1=1.11111e+60 spmb=1.11111e+15 \
        spomb=0 spomb1=1.11111e+60
    M0 (net1 B VSS VSS) nch_mac l=30n w=100n multi=1 nf=1 sd=100n \
        ad=7.5e-15 as=7.5e-15 pd=350n ps=350n nrd=2.576626 nrs=2.576626 \
        sa=75n sb=75n sa1=75n sa2=75n sa3=75n sa4=75n sb1=75n sb2=75n \
        sb3=75n spa=100n spa1=100n spa2=100n spa3=100n sap=91.9776n \
        sapb=114.444n spba=115.715168n spba1=117.042727n dfm_flag=0 \
        spmt=1.11111e+15 spomt=0 spomt1=1.11111e+60 spmb=1.11111e+15 \
        spomb=0 spomb1=1.11111e+60
    M2 (ZN B VDD VDD) pch_mac l=30n w=200n multi=1 nf=1 sd=100n ad=1.5e-14 \
        as=1.5e-14 pd=550.0n ps=550.0n nrd=1.688887 nrs=1.688887 sa=75.0n \
        sb=75.0n sa1=75.0n sa2=75.0n sa3=75.0n sa4=75.0n sb1=75.0n \
        sb2=75.0n sb3=75.0n spa=100n spa1=100n spa2=100n spa3=100n \
        sap=91.9776n sapb=114.444n spba=115.715n spba1=117.043n dfm_flag=0 \
        spmt=1.11111e+15 spomt=0 spomt1=1.11111e+60 spmb=1.11111e+15 \
        spomb=0 spomb1=1.11111e+60
    M1 (ZN A VDD VDD) pch_mac l=30n w=200n multi=1 nf=1 sd=100n ad=1.5e-14 \
        as=1.5e-14 pd=550.0n ps=550.0n nrd=1.688887 nrs=1.688887 sa=75.0n \
        sb=75.0n sa1=75.0n sa2=75.0n sa3=75.0n sa4=75.0n sb1=75.0n \
        sb2=75.0n sb3=75.0n spa=100n spa1=100n spa2=100n spa3=100n \
        sap=91.9776n sapb=114.444n spba=115.715n spba1=117.043n dfm_flag=0 \
        spmt=1.11111e+15 spomt=0 spomt1=1.11111e+60 spmb=1.11111e+15 \
        spomb=0 spomb1=1.11111e+60
ends NAND2X1
// End of subcircuit definition.

// Library name: SAR9B_400MV
// Cell name: COMPARATOR
// View name: schematic
subckt COMPARATOR CLKC VDD VN VON VOP VP VSS
    M15 (VOP VAN1 VDD VDD) pch_mac l=30n w=2u multi=1 nf=2 sd=100n \
        ad=1e-13 as=1.5e-13 pd=2.2u ps=4.3u nrd=0.091833 nrs=0.091833 \
        sa=112.742n sb=112.742n sa1=93.6047n sa2=112.078n sa3=163.715n \
        sa4=110.059n sb1=93.6047n sb2=112.078n sb3=163.715n spa=100n \
        spa1=100n spa2=100n spa3=100n sap=104.359n sapb=125.813n \
        spba=115.715n spba1=117.043n dfm_flag=0 spmt=1.11111e+15 spomt=0 \
        spomt1=1.11111e+60 spmb=1.11111e+15 spomb=0 spomb1=1.11111e+60
    M13 (VON VAP1 VDD VDD) pch_mac l=30n w=2u multi=1 nf=2 sd=100n \
        ad=1e-13 as=1.5e-13 pd=2.2u ps=4.3u nrd=0.091833 nrs=0.091833 \
        sa=112.742n sb=112.742n sa1=93.6047n sa2=112.078n sa3=163.715n \
        sa4=110.059n sb1=93.6047n sb2=112.078n sb3=163.715n spa=100n \
        spa1=100n spa2=100n spa3=100n sap=104.359n sapb=125.813n \
        spba=115.715n spba1=117.043n dfm_flag=0 spmt=1.11111e+15 spomt=0 \
        spomt1=1.11111e+60 spmb=1.11111e+15 spomb=0 spomb1=1.11111e+60
    M12 (VAP1 VAN VDD VDD) pch_mac l=30n w=2u multi=1 nf=2 sd=100n \
        ad=1e-13 as=1.5e-13 pd=2.2u ps=4.3u nrd=0.091833 nrs=0.091833 \
        sa=112.742n sb=112.742n sa1=93.6047n sa2=112.078n sa3=163.715n \
        sa4=110.059n sb1=93.6047n sb2=112.078n sb3=163.715n spa=100n \
        spa1=100n spa2=100n spa3=100n sap=104.359n sapb=125.813n \
        spba=115.715n spba1=117.043n dfm_flag=0 spmt=1.11111e+15 spomt=0 \
        spomt1=1.11111e+60 spmb=1.11111e+15 spomb=0 spomb1=1.11111e+60
    M9 (VAP1 VAN1 VDD VDD) pch_mac l=30n w=2u multi=1 nf=2 sd=100n \
        ad=1e-13 as=1.5e-13 pd=2.2u ps=4.3u nrd=0.091833 nrs=0.091833 \
        sa=112.742n sb=112.742n sa1=93.6047n sa2=112.078n sa3=163.715n \
        sa4=110.059n sb1=93.6047n sb2=112.078n sb3=163.715n spa=100n \
        spa1=100n spa2=100n spa3=100n sap=104.359n sapb=125.813n \
        spba=115.715n spba1=117.043n dfm_flag=0 spmt=1.11111e+15 spomt=0 \
        spomt1=1.11111e+60 spmb=1.11111e+15 spomb=0 spomb1=1.11111e+60
    M8 (VAN1 VAP VDD VDD) pch_mac l=30n w=2u multi=1 nf=2 sd=100n ad=1e-13 \
        as=1.5e-13 pd=2.2u ps=4.3u nrd=0.091833 nrs=0.091833 sa=112.742n \
        sb=112.742n sa1=93.6047n sa2=112.078n sa3=163.715n sa4=110.059n \
        sb1=93.6047n sb2=112.078n sb3=163.715n spa=100n spa1=100n \
        spa2=100n spa3=100n sap=104.359n sapb=125.813n spba=115.715n \
        spba1=117.043n dfm_flag=0 spmt=1.11111e+15 spomt=0 \
        spomt1=1.11111e+60 spmb=1.11111e+15 spomb=0 spomb1=1.11111e+60
    M5 (VAN1 VAP1 VDD VDD) pch_mac l=30n w=2u multi=1 nf=2 sd=100n \
        ad=1e-13 as=1.5e-13 pd=2.2u ps=4.3u nrd=0.091833 nrs=0.091833 \
        sa=112.742n sb=112.742n sa1=93.6047n sa2=112.078n sa3=163.715n \
        sa4=110.059n sb1=93.6047n sb2=112.078n sb3=163.715n spa=100n \
        spa1=100n spa2=100n spa3=100n sap=104.359n sapb=125.813n \
        spba=115.715n spba1=117.043n dfm_flag=0 spmt=1.11111e+15 spomt=0 \
        spomt1=1.11111e+60 spmb=1.11111e+15 spomb=0 spomb1=1.11111e+60
    M18 (VAP VN net2 VDD) pch_mac l=30n w=2u multi=1 nf=2 sd=100n ad=1e-13 \
        as=1.5e-13 pd=2.2u ps=4.3u nrd=0.091833 nrs=0.091833 sa=112.742n \
        sb=112.742n sa1=93.6047n sa2=112.078n sa3=163.715n sa4=110.059n \
        sb1=93.6047n sb2=112.078n sb3=163.715n spa=100n spa1=100n \
        spa2=100n spa3=100n sap=104.359n sapb=125.813n spba=115.715n \
        spba1=117.043n dfm_flag=0 spmt=1.11111e+15 spomt=0 \
        spomt1=1.11111e+60 spmb=1.11111e+15 spomb=0 spomb1=1.11111e+60
    M0 (net2 CLKC VDD VDD) pch_mac l=30n w=2u multi=1 nf=2 sd=100n \
        ad=1e-13 as=1.5e-13 pd=2.2u ps=4.3u nrd=0.091833 nrs=0.091833 \
        sa=112.742n sb=112.742n sa1=93.6047n sa2=112.078n sa3=163.715n \
        sa4=110.059n sb1=93.6047n sb2=112.078n sb3=163.715n spa=100n \
        spa1=100n spa2=100n spa3=100n sap=104.359n sapb=125.813n \
        spba=115.715n spba1=117.043n dfm_flag=0 spmt=1.11111e+15 spomt=0 \
        spomt1=1.11111e+60 spmb=1.11111e+15 spomb=0 spomb1=1.11111e+60
    M2 (VAN VP net2 VDD) pch_mac l=30n w=2u multi=1 nf=2 sd=100n ad=1e-13 \
        as=1.5e-13 pd=2.2u ps=4.3u nrd=0.091833 nrs=0.091833 sa=112.742n \
        sb=112.742n sa1=93.6047n sa2=112.078n sa3=163.715n sa4=110.059n \
        sb1=93.6047n sb2=112.078n sb3=163.715n spa=100n spa1=100n \
        spa2=100n spa3=100n sap=104.359n sapb=125.813n spba=115.715n \
        spba1=117.043n dfm_flag=0 spmt=1.11111e+15 spomt=0 \
        spomt1=1.11111e+60 spmb=1.11111e+15 spomb=0 spomb1=1.11111e+60
    M16 (VOP VAN1 VSS VSS) nch_mac l=30n w=1u multi=1 nf=1 sd=100n \
        ad=7.5e-14 as=7.5e-14 pd=2.15u ps=2.15u nrd=0.289519 nrs=0.289519 \
        sa=75.0n sb=75.0n sa1=75.0n sa2=75.0n sa3=75.0n sa4=75.0n \
        sb1=75.0n sb2=75.0n sb3=75.0n spa=100n spa1=100n spa2=100n \
        spa3=100n sap=91.9776n sapb=114.444n spba=115.715n spba1=117.043n \
        dfm_flag=0 spmt=1.11111e+15 spomt=0 spomt1=1.11111e+60 \
        spmb=1.11111e+15 spomb=0 spomb1=1.11111e+60
    M14 (VON VAP1 VSS VSS) nch_mac l=30n w=1u multi=1 nf=1 sd=100n \
        ad=7.5e-14 as=7.5e-14 pd=2.15u ps=2.15u nrd=0.289519 nrs=0.289519 \
        sa=75.0n sb=75.0n sa1=75.0n sa2=75.0n sa3=75.0n sa4=75.0n \
        sb1=75.0n sb2=75.0n sb3=75.0n spa=100n spa1=100n spa2=100n \
        spa3=100n sap=91.9776n sapb=114.444n spba=115.715n spba1=117.043n \
        dfm_flag=0 spmt=1.11111e+15 spomt=0 spomt1=1.11111e+60 \
        spmb=1.11111e+15 spomb=0 spomb1=1.11111e+60
    M11 (VAP1 VAN net8 VSS) nch_mac l=30n w=1u multi=1 nf=1 sd=100n \
        ad=7.5e-14 as=7.5e-14 pd=2.15u ps=2.15u nrd=0.289519 nrs=0.289519 \
        sa=75.0n sb=75.0n sa1=75.0n sa2=75.0n sa3=75.0n sa4=75.0n \
        sb1=75.0n sb2=75.0n sb3=75.0n spa=100n spa1=100n spa2=100n \
        spa3=100n sap=91.9776n sapb=114.444n spba=115.715n spba1=117.043n \
        dfm_flag=0 spmt=1.11111e+15 spomt=0 spomt1=1.11111e+60 \
        spmb=1.11111e+15 spomb=0 spomb1=1.11111e+60
    M10 (net8 VAN1 VSS VSS) nch_mac l=30n w=1u multi=1 nf=1 sd=100n \
        ad=7.5e-14 as=7.5e-14 pd=2.15u ps=2.15u nrd=0.289519 nrs=0.289519 \
        sa=75.0n sb=75.0n sa1=75.0n sa2=75.0n sa3=75.0n sa4=75.0n \
        sb1=75.0n sb2=75.0n sb3=75.0n spa=100n spa1=100n spa2=100n \
        spa3=100n sap=91.9776n sapb=114.444n spba=115.715n spba1=117.043n \
        dfm_flag=0 spmt=1.11111e+15 spomt=0 spomt1=1.11111e+60 \
        spmb=1.11111e+15 spomb=0 spomb1=1.11111e+60
    M7 (VAN1 VAP net6 VSS) nch_mac l=30n w=1u multi=1 nf=1 sd=100n \
        ad=7.5e-14 as=7.5e-14 pd=2.15u ps=2.15u nrd=0.289519 nrs=0.289519 \
        sa=75.0n sb=75.0n sa1=75.0n sa2=75.0n sa3=75.0n sa4=75.0n \
        sb1=75.0n sb2=75.0n sb3=75.0n spa=100n spa1=100n spa2=100n \
        spa3=100n sap=91.9776n sapb=114.444n spba=115.715n spba1=117.043n \
        dfm_flag=0 spmt=1.11111e+15 spomt=0 spomt1=1.11111e+60 \
        spmb=1.11111e+15 spomb=0 spomb1=1.11111e+60
    M6 (net6 VAP1 VSS VSS) nch_mac l=30n w=1u multi=1 nf=1 sd=100n \
        ad=7.5e-14 as=7.5e-14 pd=2.15u ps=2.15u nrd=0.289519 nrs=0.289519 \
        sa=75.0n sb=75.0n sa1=75.0n sa2=75.0n sa3=75.0n sa4=75.0n \
        sb1=75.0n sb2=75.0n sb3=75.0n spa=100n spa1=100n spa2=100n \
        spa3=100n sap=91.9776n sapb=114.444n spba=115.715n spba1=117.043n \
        dfm_flag=0 spmt=1.11111e+15 spomt=0 spomt1=1.11111e+60 \
        spmb=1.11111e+15 spomb=0 spomb1=1.11111e+60
    M1 (VAP CLKC VSS VSS) nch_mac l=30n w=1u multi=1 nf=1 sd=100n \
        ad=7.5e-14 as=7.5e-14 pd=2.15u ps=2.15u nrd=0.289519 nrs=0.289519 \
        sa=75.0n sb=75.0n sa1=75.0n sa2=75.0n sa3=75.0n sa4=75.0n \
        sb1=75.0n sb2=75.0n sb3=75.0n spa=100n spa1=100n spa2=100n \
        spa3=100n sap=91.9776n sapb=114.444n spba=115.715n spba1=117.043n \
        dfm_flag=0 spmt=1.11111e+15 spomt=0 spomt1=1.11111e+60 \
        spmb=1.11111e+15 spomb=0 spomb1=1.11111e+60
    M3 (VAN CLKC VSS VSS) nch_mac l=30n w=1u multi=1 nf=1 sd=100n \
        ad=7.5e-14 as=7.5e-14 pd=2.15u ps=2.15u nrd=0.289519 nrs=0.289519 \
        sa=75.0n sb=75.0n sa1=75.0n sa2=75.0n sa3=75.0n sa4=75.0n \
        sb1=75.0n sb2=75.0n sb3=75.0n spa=100n spa1=100n spa2=100n \
        spa3=100n sap=91.9776n sapb=114.444n spba=115.715n spba1=117.043n \
        dfm_flag=0 spmt=1.11111e+15 spomt=0 spomt1=1.11111e+60 \
        spmb=1.11111e+15 spomb=0 spomb1=1.11111e+60
ends COMPARATOR
// End of subcircuit definition.

// Library name: SAR9B_400MV
// Cell name: NOR2X1
// View name: schematic
subckt NOR2X1 A B VDD VSS ZN
    M3 (ZN A VSS VSS) nch_mac l=30n w=100n multi=1 nf=1 sd=100n ad=7.5e-15 \
        as=7.5e-15 pd=350n ps=350n nrd=2.576626 nrs=2.576626 sa=75n sb=75n \
        sa1=75n sa2=75n sa3=75n sa4=75n sb1=75n sb2=75n sb3=75n spa=100n \
        spa1=100n spa2=100n spa3=100n sap=91.9776n sapb=114.444n \
        spba=115.715168n spba1=117.042727n dfm_flag=0 spmt=1.11111e+15 \
        spomt=0 spomt1=1.11111e+60 spmb=1.11111e+15 spomb=0 \
        spomb1=1.11111e+60
    M0 (ZN B VSS VSS) nch_mac l=30n w=100n multi=1 nf=1 sd=100n ad=7.5e-15 \
        as=7.5e-15 pd=350n ps=350n nrd=2.576626 nrs=2.576626 sa=75n sb=75n \
        sa1=75n sa2=75n sa3=75n sa4=75n sb1=75n sb2=75n sb3=75n spa=100n \
        spa1=100n spa2=100n spa3=100n sap=91.9776n sapb=114.444n \
        spba=115.715168n spba1=117.042727n dfm_flag=0 spmt=1.11111e+15 \
        spomt=0 spomt1=1.11111e+60 spmb=1.11111e+15 spomb=0 \
        spomb1=1.11111e+60
    M2 (ZN B net2 VDD) pch_mac l=30n w=200n multi=1 nf=1 sd=100n \
        ad=1.5e-14 as=1.5e-14 pd=550.0n ps=550.0n nrd=1.688887 \
        nrs=1.688887 sa=75.0n sb=75.0n sa1=75.0n sa2=75.0n sa3=75.0n \
        sa4=75.0n sb1=75.0n sb2=75.0n sb3=75.0n spa=100n spa1=100n \
        spa2=100n spa3=100n sap=91.9776n sapb=114.444n spba=115.715n \
        spba1=117.043n dfm_flag=0 spmt=1.11111e+15 spomt=0 \
        spomt1=1.11111e+60 spmb=1.11111e+15 spomb=0 spomb1=1.11111e+60
    M1 (net2 A VDD VDD) pch_mac l=30n w=200n multi=1 nf=1 sd=100n \
        ad=1.5e-14 as=1.5e-14 pd=550.0n ps=550.0n nrd=1.688887 \
        nrs=1.688887 sa=75.0n sb=75.0n sa1=75.0n sa2=75.0n sa3=75.0n \
        sa4=75.0n sb1=75.0n sb2=75.0n sb3=75.0n spa=100n spa1=100n \
        spa2=100n spa3=100n sap=91.9776n sapb=114.444n spba=115.715n \
        spba1=117.043n dfm_flag=0 spmt=1.11111e+15 spomt=0 \
        spomt1=1.11111e+60 spmb=1.11111e+15 spomb=0 spomb1=1.11111e+60
ends NOR2X1
// End of subcircuit definition.

// Library name: SAR9B_400MV
// Cell name: BOOTSTRAP_DIFF
// View name: schematic
subckt BOOTSTRAP_DIFF CLKS CLKSB VDD VIN VIP VOUTN VOUTP VSS
    M35 (VIP VSS VOUTN VSS) nch_mac l=30n w=1u multi=2 nf=1 sd=100n \
        ad=7.5e-14 as=7.5e-14 pd=2.15u ps=2.15u nrd=0.289519 nrs=0.289519 \
        sa=75.0n sb=75.0n sa1=75.0n sa2=75.0n sa3=75.0n sa4=75.0n \
        sb1=75.0n sb2=75.0n sb3=75.0n spa=100n spa1=100n spa2=100n \
        spa3=100n sap=91.9776n sapb=114.444n spba=115.715n spba1=117.043n \
        dfm_flag=0 spmt=1.11111e+15 spomt=0 spomt1=1.11111e+60 \
        spmb=1.11111e+15 spomb=0 spomb1=1.11111e+60
    M34 (VIN VSS VOUTP VSS) nch_mac l=30n w=1u multi=2 nf=1 sd=100n \
        ad=7.5e-14 as=7.5e-14 pd=2.15u ps=2.15u nrd=0.289519 nrs=0.289519 \
        sa=75.0n sb=75.0n sa1=75.0n sa2=75.0n sa3=75.0n sa4=75.0n \
        sb1=75.0n sb2=75.0n sb3=75.0n spa=100n spa1=100n spa2=100n \
        spa3=100n sap=91.9776n sapb=114.444n spba=115.715n spba1=117.043n \
        dfm_flag=0 spmt=1.11111e+15 spomt=0 spomt1=1.11111e+60 \
        spmb=1.11111e+15 spomb=0 spomb1=1.11111e+60
    M32 (net6 CLKSB VSS VSS) nch_mac l=30n w=400n multi=1 nf=1 sd=100n \
        ad=3e-14 as=3e-14 pd=950.0n ps=950.0n nrd=0.896976 nrs=0.896976 \
        sa=75.0n sb=75.0n sa1=75.0n sa2=75.0n sa3=75.0n sa4=75.0n \
        sb1=75.0n sb2=75.0n sb3=75.0n spa=100n spa1=100n spa2=100n \
        spa3=100n sap=91.9776n sapb=114.444n spba=115.715n spba1=117.043n \
        dfm_flag=0 spmt=1.11111e+15 spomt=0 spomt1=1.11111e+60 \
        spmb=1.11111e+15 spomb=0 spomb1=1.11111e+60
    M31 (NG VDD net6 VSS) nch_mac l=30n w=200n multi=1 nf=1 sd=100n \
        ad=1.5e-14 as=1.5e-14 pd=550.0n ps=550.0n nrd=2.828877 \
        nrs=2.828877 sa=75.0n sb=75.0n sa1=75.0n sa2=75.0n sa3=75.0n \
        sa4=75.0n sb1=75.0n sb2=75.0n sb3=75.0n spa=100n spa1=100n \
        spa2=100n spa3=100n sap=91.9776n sapb=114.444n spba=115.715n \
        spba1=117.043n dfm_flag=0 spmt=1.11111e+15 spomt=0 \
        spomt1=1.11111e+60 spmb=1.11111e+15 spomb=0 spomb1=1.11111e+60
    M27 (net4 CLKS B B) nch_mac l=30n w=400n multi=1 nf=1 sd=100n ad=3e-14 \
        as=3e-14 pd=950.0n ps=950.0n nrd=0.896976 nrs=0.896976 sa=75.0n \
        sb=75.0n sa1=75.0n sa2=75.0n sa3=75.0n sa4=75.0n sb1=75.0n \
        sb2=75.0n sb3=75.0n spa=100n spa1=100n spa2=100n spa3=100n \
        sap=91.9776n sapb=114.444n spba=115.715n spba1=117.043n dfm_flag=0 \
        spmt=1.11111e+15 spomt=0 spomt1=1.11111e+60 spmb=1.11111e+15 \
        spomb=0 spomb1=1.11111e+60
    M26 (net4 NG B VSS) nch_mac l=30n w=210.0n multi=1 nf=1 sd=100n \
        ad=1.575e-14 as=1.575e-14 pd=570.0n ps=570.0n nrd=1.295520 \
        nrs=1.295520 sa=75.0n sb=75.0n sa1=75.0n sa2=75.0n sa3=75.0n \
        sa4=75.0n sb1=75.0n sb2=75.0n sb3=75.0n spa=100n spa1=100n \
        spa2=100n spa3=100n sap=91.9776n sapb=114.444n spba=115.715n \
        spba1=117.043n dfm_flag=0 spmt=1.11111e+15 spomt=0 \
        spomt1=1.11111e+60 spmb=1.11111e+15 spomb=0 spomb1=1.11111e+60
    M25 (B NG VIN VSS) nch_mac l=30n w=500n multi=1 nf=1 sd=100n \
        ad=3.75e-14 as=3.75e-14 pd=1.15u ps=1.15u nrd=0.662935 \
        nrs=0.662935 sa=75.0n sb=75.0n sa1=75.0n sa2=75.0n sa3=75.0n \
        sa4=75.0n sb1=75.0n sb2=75.0n sb3=75.0n spa=100n spa1=100n \
        spa2=100n spa3=100n sap=91.9776n sapb=114.444n spba=115.715n \
        spba1=117.043n dfm_flag=0 spmt=1.11111e+15 spomt=0 \
        spomt1=1.11111e+60 spmb=1.11111e+15 spomb=0 spomb1=1.11111e+60
    M24 (B CLKSB VSS VSS) nch_mac l=30n w=2u multi=1 nf=2 sd=100n ad=1e-13 \
        as=1.5e-13 pd=2.2u ps=4.3u nrd=0.185844 nrs=0.185844 sa=112.742n \
        sb=112.742n sa1=93.6047n sa2=112.078n sa3=163.715n sa4=110.059n \
        sb1=93.6047n sb2=112.078n sb3=163.715n spa=100n spa1=100n \
        spa2=100n spa3=100n sap=104.359n sapb=125.813n spba=115.715n \
        spba1=117.043n dfm_flag=0 spmt=1.11111e+15 spomt=0 \
        spomt1=1.11111e+60 spmb=1.11111e+15 spomb=0 spomb1=1.11111e+60
    M23 (VIN NG VOUTN B) nch_mac l=30n w=1u multi=2 nf=1 sd=100n \
        ad=7.5e-14 as=7.5e-14 pd=2.15u ps=2.15u nrd=0.289519 nrs=0.289519 \
        sa=75.0n sb=75.0n sa1=75.0n sa2=75.0n sa3=75.0n sa4=75.0n \
        sb1=75.0n sb2=75.0n sb3=75.0n spa=100n spa1=100n spa2=100n \
        spa3=100n sap=91.9776n sapb=114.444n spba=115.715n spba1=117.043n \
        dfm_flag=0 spmt=1.11111e+15 spomt=0 spomt1=1.11111e+60 \
        spmb=1.11111e+15 spomb=0 spomb1=1.11111e+60
    M9 (VIP PG VOUTP A) nch_mac l=30n w=1u multi=2 nf=1 sd=100n ad=7.5e-14 \
        as=7.5e-14 pd=2.15u ps=2.15u nrd=0.289519 nrs=0.289519 sa=75.0n \
        sb=75.0n sa1=75.0n sa2=75.0n sa3=75.0n sa4=75.0n sb1=75.0n \
        sb2=75.0n sb3=75.0n spa=100n spa1=100n spa2=100n spa3=100n \
        sap=91.9776n sapb=114.444n spba=115.715n spba1=117.043n dfm_flag=0 \
        spmt=1.11111e+15 spomt=0 spomt1=1.11111e+60 spmb=1.11111e+15 \
        spomb=0 spomb1=1.11111e+60
    M8 (A PG VIP VSS) nch_mac l=30n w=500n multi=1 nf=1 sd=100n \
        ad=3.75e-14 as=3.75e-14 pd=1.15u ps=1.15u nrd=0.662935 \
        nrs=0.662935 sa=75.0n sb=75.0n sa1=75.0n sa2=75.0n sa3=75.0n \
        sa4=75.0n sb1=75.0n sb2=75.0n sb3=75.0n spa=100n spa1=100n \
        spa2=100n spa3=100n sap=91.9776n sapb=114.444n spba=115.715n \
        spba1=117.043n dfm_flag=0 spmt=1.11111e+15 spomt=0 \
        spomt1=1.11111e+60 spmb=1.11111e+15 spomb=0 spomb1=1.11111e+60
    M7 (net1 PG A VSS) nch_mac l=30n w=210.0n multi=1 nf=1 sd=100n \